power-feeders/Taxonomy_feeders/R1_1247_4_t6.glm
//Input feeder information for Taxonomy Feeders with different cases.
//Started on 10/21/09. This version created 25-Feb-2019 18:33:37.
// This version was created to perform FY11 Department of Energy
// analysis on the benefits of the SGIG grant projects.

clock {
     timezone PST+8PDT;
     starttime '2009-01-01 00:00:00';
     stoptime '2010-01-02 00:00:00';
}

#include "appliance_schedules.glm";
#include "water_and_setpoint_schedule_v5.glm";
#include "commercial_schedules.glm";
#include "daily_elasticity_schedules.glm";
//#define stylesheet=http://gridlab-d.svn.sourceforge.net/viewvc/gridlab-d/trunk/core/gridlabd-2_0
#set minimum_timestep=60;
#set profiler=1;
#set relax_naming_rules=1;

module tape;
module climate;
module residential {
     implicit_enduses NONE;
};
module powerflow {
     solver_method NR;
     NR_iteration_limit 50;
};

class player {
     double value;
};

module market;

class auction {
     double my_avg;
     double my_std;
};

object player {
     name CPP_days_R1;
     file CPP_days_R1.player;
};

object auction {
     name Market_1;
     period 900;
     special_mode BUYERS_ONLY;
     unit kW;
     my_avg 0.107343;
     my_std 0.035781;
     object player {
          file R1_1247_4_t0_TOU.player;
          loop 10;
          property current_market.clearing_price;
     };
}

object climate {
     name "CA-San_francisco";
     tmyfile "CA-San_francisco.tmy2";
     interpolate QUADRATIC;
};

//Configurations

object regulator_configuration {     
      name regulator_configuration_877;     
      name feeder_reg_cfg;     
      Control OUTPUT_VOLTAGE;     
      band_center 7500.0;     
      band_width 120;     
      connect_type WYE_WYE;     
      time_delay 30;     
      raise_taps 16;     
      lower_taps 16;     
      regulation 0.10;     
      tap_pos_A 0;     
      tap_pos_B 0;     
      tap_pos_C 0;     
}       

object line_configuration {     
      name line_configuration_8;     
      conductor_A underground_line_conductor_2;     
      conductor_B underground_line_conductor_2;     
      conductor_C underground_line_conductor_2;     
      conductor_N underground_line_conductor_2;     
      spacing line_spacing_5;     
}       

object line_configuration {     
      name line_configuration_9;     
      conductor_A underground_line_conductor_3;     
      conductor_B underground_line_conductor_3;     
      conductor_C underground_line_conductor_3;     
      conductor_N underground_line_conductor_3;     
      spacing line_spacing_5;     
}       

object line_configuration {     
      name line_configuration_10;     
      conductor_A underground_line_conductor_4;     
      conductor_B underground_line_conductor_4;     
      conductor_C underground_line_conductor_4;     
      conductor_N underground_line_conductor_4;     
      spacing line_spacing_5;     
}       

object line_configuration {     
      name line_configuration_11;     
      conductor_A underground_line_conductor_4;     
      conductor_N underground_line_conductor_4;     
      spacing line_spacing_6;     
}       

object line_configuration {     
      name line_configuration_12;     
      conductor_C underground_line_conductor_4;     
      conductor_N underground_line_conductor_4;     
      spacing line_spacing_7;     
}       

object line_configuration {     
      name line_configuration_13;     
      conductor_A underground_line_conductor_3;     
      conductor_N underground_line_conductor_3;     
      spacing line_spacing_6;     
}       

object line_configuration {     
      name line_configuration_14;     
      conductor_C underground_line_conductor_3;     
      conductor_N underground_line_conductor_3;     
      spacing line_spacing_7;     
}       

object line_spacing {     
      name line_spacing_5;     
      distance_AB 52.0 in;    
      distance_BC 52.0 in;    
      distance_AC 52.0 in;    
      distance_AN 72.0 in;    
      distance_BN 72.0 in;    
      distance_CN 72.0 in;    
}       

object line_spacing {     
      name line_spacing_6;     
      distance_AN 72.0 in;    
}       

object line_spacing {     
      name line_spacing_7;     
      distance_CN 72.0 in;    
}       

object transformer_configuration {     
      name transformer_configuration_495;     
      connect_type SINGLE_PHASE_CENTER_TAPPED;     
      install_type PADMOUNT;     
      primary_voltage 7200 V;    
      secondary_voltage 120 V;    
      power_rating 10.0;     
      powerA_rating 10.0;     
      resistance 0.015;     
      reactance 0.01;     
      shunt_impedance 308.320+282.847j;     
}       

object transformer_configuration {     
      name transformer_configuration_496;     
      connect_type SINGLE_PHASE_CENTER_TAPPED;     
      install_type PADMOUNT;     
      primary_voltage 7200 V;    
      secondary_voltage 120 V;    
      power_rating 15.0;     
      powerA_rating 15.0;     
      resistance 0.01000;     
      reactance 0.00667;     
      shunt_impedance 318.750+327.548j;     
}       

object transformer_configuration {     
      name transformer_configuration_497;     
      connect_type SINGLE_PHASE_CENTER_TAPPED;     
      install_type PADMOUNT;     
      primary_voltage 7200 V;    
      secondary_voltage 120 V;    
      power_rating 10.0;     
      powerA_rating 10.0;     
      resistance 0.015;     
      reactance 0.01;     
      shunt_impedance 308.320+322.496j;     
}       

object transformer_configuration {     
      name transformer_configuration_498;     
      connect_type SINGLE_PHASE_CENTER_TAPPED;     
      install_type PADMOUNT;     
      primary_voltage 7200 V;    
      secondary_voltage 120 V;    
      power_rating 25.0;     
      powerA_rating 25.0;     
      resistance 0.00600;     
      reactance 0.00400;     
      shunt_impedance 339.610+332.223j;     
}       

object transformer_configuration {     
      name transformer_configuration_499;     
      connect_type SINGLE_PHASE_CENTER_TAPPED;     
      install_type PADMOUNT;     
      primary_voltage 7200 V;    
      secondary_voltage 120 V;    
      power_rating 50.0;     
      powerA_rating 50.0;     
      resistance 0.00300;     
      reactance 0.00200;     
      shunt_impedance 391.760+422.949j;     
}       

object transformer_configuration {     
      name transformer_configuration_500;     
      connect_type SINGLE_PHASE_CENTER_TAPPED;     
      install_type PADMOUNT;     
      primary_voltage 7200 V;    
      secondary_voltage 120 V;    
      power_rating 75.0;     
      powerA_rating 75.0;     
      resistance 0.00200;     
      reactance 0.00133;     
      shunt_impedance 443.910+376.523j;     
}       

object transformer_configuration {     
      name transformer_configuration_501;     
      connect_type SINGLE_PHASE_CENTER_TAPPED;     
      install_type PADMOUNT;     
      primary_voltage 7200 V;    
      secondary_voltage 120 V;    
      power_rating 30.0;     
      powerA_rating 30.0;     
      resistance 0.00500;     
      reactance 0.00333;     
      shunt_impedance 350.040+312.414j;     
}       

object transformer_configuration {     
      name transformer_configuration_502;     
      connect_type SINGLE_PHASE_CENTER_TAPPED;     
      install_type PADMOUNT;     
      primary_voltage 7200 V;    
      secondary_voltage 120 V;    
      power_rating 5.0;     
      powerA_rating 5.0;     
      resistance 0.015;     
      reactance 0.01;     
      shunt_impedance 297.890+206.373j;     
}       

object transformer_configuration {     
      name transformer_configuration_503;     
      connect_type SINGLE_PHASE_CENTER_TAPPED;     
      install_type PADMOUNT;     
      primary_voltage 7200 V;    
      secondary_voltage 120 V;    
      power_rating 10.0;     
      powerB_rating 10.0;     
      resistance 0.015;     
      reactance 0.01;     
      shunt_impedance 308.320+324.396j;     
}       

object transformer_configuration {     
      name transformer_configuration_504;     
      connect_type SINGLE_PHASE_CENTER_TAPPED;     
      install_type PADMOUNT;     
      primary_voltage 7200 V;    
      secondary_voltage 120 V;    
      power_rating 25.0;     
      powerB_rating 25.0;     
      resistance 0.00600;     
      reactance 0.00400;     
      shunt_impedance 339.610+305.954j;     
}       

object transformer_configuration {     
      name transformer_configuration_505;     
      connect_type SINGLE_PHASE_CENTER_TAPPED;     
      install_type PADMOUNT;     
      primary_voltage 7200 V;    
      secondary_voltage 120 V;    
      power_rating 50.0;     
      powerB_rating 50.0;     
      resistance 0.00300;     
      reactance 0.00200;     
      shunt_impedance 391.760+381.844j;     
}       

object transformer_configuration {     
      name transformer_configuration_506;     
      connect_type SINGLE_PHASE_CENTER_TAPPED;     
      install_type PADMOUNT;     
      primary_voltage 7200 V;    
      secondary_voltage 120 V;    
      power_rating 75.0;     
      powerB_rating 75.0;     
      resistance 0.00200;     
      reactance 0.00133;     
      shunt_impedance 443.910+488.712j;     
}       

object transformer_configuration {     
      name transformer_configuration_507;     
      connect_type SINGLE_PHASE_CENTER_TAPPED;     
      install_type PADMOUNT;     
      primary_voltage 7200 V;    
      secondary_voltage 120 V;    
      power_rating 30.0;     
      powerB_rating 30.0;     
      resistance 0.00500;     
      reactance 0.00333;     
      shunt_impedance 350.040+351.826j;     
}       

object transformer_configuration {     
      name transformer_configuration_508;     
      connect_type SINGLE_PHASE_CENTER_TAPPED;     
      install_type PADMOUNT;     
      primary_voltage 7200 V;    
      secondary_voltage 120 V;    
      power_rating 5.0;     
      powerB_rating 5.0;     
      resistance 0.015;     
      reactance 0.01;     
      shunt_impedance 297.890+284.770j;     
}       

object transformer_configuration {     
      name transformer_configuration_509;     
      connect_type SINGLE_PHASE_CENTER_TAPPED;     
      install_type PADMOUNT;     
      primary_voltage 7200 V;    
      secondary_voltage 120 V;    
      power_rating 10.0;     
      powerC_rating 10.0;     
      resistance 0.015;     
      reactance 0.01;     
      shunt_impedance 308.320+282.160j;     
}       

object transformer_configuration {     
      name transformer_configuration_510;     
      connect_type SINGLE_PHASE_CENTER_TAPPED;     
      install_type PADMOUNT;     
      primary_voltage 7200 V;    
      secondary_voltage 120 V;    
      power_rating 10.0;     
      powerC_rating 10.0;     
      resistance 0.015;     
      reactance 0.01;     
      shunt_impedance 308.320+300.909j;     
}       

object transformer_configuration {     
      name transformer_configuration_511;     
      connect_type SINGLE_PHASE_CENTER_TAPPED;     
      install_type PADMOUNT;     
      primary_voltage 7200 V;    
      secondary_voltage 120 V;    
      power_rating 25.0;     
      powerC_rating 25.0;     
      resistance 0.00600;     
      reactance 0.00400;     
      shunt_impedance 339.610+360.086j;     
}       

object transformer_configuration {     
      name transformer_configuration_512;     
      connect_type SINGLE_PHASE_CENTER_TAPPED;     
      install_type PADMOUNT;     
      primary_voltage 7200 V;    
      secondary_voltage 120 V;    
      power_rating 50.0;     
      powerC_rating 50.0;     
      resistance 0.00300;     
      reactance 0.00200;     
      shunt_impedance 391.760+332.359j;     
}       

object transformer_configuration {     
      name transformer_configuration_513;     
      connect_type SINGLE_PHASE_CENTER_TAPPED;     
      install_type PADMOUNT;     
      primary_voltage 7200 V;    
      secondary_voltage 120 V;    
      power_rating 75.0;     
      powerC_rating 75.0;     
      resistance 0.00200;     
      reactance 0.00133;     
      shunt_impedance 443.910+440.876j;     
}       

object transformer_configuration {     
      name transformer_configuration_514;     
      connect_type SINGLE_PHASE_CENTER_TAPPED;     
      install_type PADMOUNT;     
      primary_voltage 7200 V;    
      secondary_voltage 120 V;    
      power_rating 30.0;     
      powerC_rating 30.0;     
      resistance 0.00500;     
      reactance 0.00333;     
      shunt_impedance 350.040+377.427j;     
}       

object transformer_configuration {     
      name transformer_configuration_515;     
      connect_type SINGLE_PHASE_CENTER_TAPPED;     
      install_type PADMOUNT;     
      primary_voltage 7200 V;    
      secondary_voltage 120 V;    
      power_rating 5.0;     
      powerC_rating 5.0;     
      resistance 0.015;     
      reactance 0.01;     
      shunt_impedance 297.890+255.568j;     
}       

object transformer_configuration {     
      name transformer_configuration_554;     
      connect_type WYE_WYE;     
      install_type PADMOUNT;     
      primary_voltage 12470.000 V;    
      secondary_voltage 480 V;    
      power_rating 30.0;     
      powerA_rating 10.0;     
      powerB_rating 10.0;     
      powerC_rating 10.0;     
      resistance 0.00333;     
      reactance 0.01667;     
      shunt_impedance 350.040+373.470j;     
}       

object transformer_configuration {     
      name transformer_configuration_555;     
      connect_type WYE_WYE;     
      install_type PADMOUNT;     
      primary_voltage 12470.000 V;    
      secondary_voltage 480 V;    
      power_rating 112.5;     
      powerA_rating 37.5;     
      powerB_rating 37.5;     
      powerC_rating 37.5;     
      resistance 0.00089;     
      reactance 0.00444;     
      shunt_impedance 522.135+557.809j;     
}       

object transformer_configuration {     
      name transformer_configuration_556;     
      connect_type WYE_WYE;     
      install_type PADMOUNT;     
      primary_voltage 12470.000 V;    
      secondary_voltage 480 V;    
      power_rating 75.0;     
      powerA_rating 25.0;     
      powerB_rating 25.0;     
      powerC_rating 25.0;     
      resistance 0.00133;     
      reactance 0.00667;     
      shunt_impedance 443.910+404.751j;     
}       

object transformer_configuration {     
      name transformer_configuration_557;     
      connect_type WYE_WYE;     
      install_type PADMOUNT;     
      primary_voltage 12470.000 V;    
      secondary_voltage 480 V;    
      power_rating 45.0;     
      powerA_rating 15.0;     
      powerB_rating 15.0;     
      powerC_rating 15.0;     
      resistance 0.00222;     
      reactance 0.01111;     
      shunt_impedance 381.330+323.959j;     
}       

object transformer_configuration {     
      name transformer_configuration_558;     
      connect_type WYE_WYE;     
      install_type PADMOUNT;     
      primary_voltage 12470.000 V;    
      secondary_voltage 480 V;    
      power_rating 90.0;     
      powerA_rating 30.0;     
      powerB_rating 30.0;     
      powerC_rating 30.0;     
      resistance 0.00111;     
      reactance 0.00556;     
      shunt_impedance 475.200+495.783j;     
}       

object triplex_line_conductor {     
      name triplex_4/0 AA;    
      resistance 0.48;     
      geometric_mean_radius 0.0158;     
}       

object triplex_line_configuration {     
      name triplex_line_configuration_1;     
      conductor_1 triplex_4/0 AA;    
      conductor_2 triplex_4/0 AA;    
      conductor_N triplex_4/0 AA;    
      insulation_thickness 0.08;     
      diameter 0.522;     
}       

object underground_line_conductor {     
      name underground_line_conductor_2;     
      //name 1000 AAC (Tape);   
      rating.summer.continuous 775.0;     
      outer_diameter 1.87;     
      conductor_gmr 0.0371 ft;    
      conductor_diameter 1.15;     
      conductor_resistance 0.0222;     
      neutral_gmr 0.0732739718442675 ft;    
      neutral_resistance 0.05;     
      neutral_diameter 0.102;     
      neutral_strands 20.0;     
      shield_gmr 0.00;     
      shield_resistance 0.00;     
}       

object underground_line_conductor {     
      name underground_line_conductor_3;     
      //name 1000 AAC (Conc);   
      rating.summer.continuous 488.0;     
      outer_diameter 2.15;     
      conductor_gmr 0.0371 ft;    
      conductor_diameter 1.152;     
      conductor_resistance 0.091872;     
      neutral_gmr 0.0842565914341201 ft;    
      neutral_resistance 5.3856;     
      neutral_diameter 0.1019;     
      neutral_strands 20.0;     
      shield_gmr 0.00;     
      shield_resistance 0.00;     
}       

object underground_line_conductor {     
      name underground_line_conductor_4;     
      //name 1/0 AAC (Conc);   
      rating.summer.continuous 142.0;     
      outer_diameter 1.27;     
      conductor_gmr 0.01142 ft;    
      conductor_diameter 0.362;     
      conductor_resistance 0.88704;     
      neutral_gmr 0.0489686771417213 ft;    
      neutral_resistance 13.86528;     
      neutral_diameter 0.0641;     
      neutral_strands 16.0;     
      shield_gmr 0.00;     
      shield_resistance 0.00;     
}       

object transformer_configuration {
     name trans_config_to_feeder;
     connect_type WYE_WYE;
     install_type PADMOUNT;
     primary_voltage 230000;
     secondary_voltage 12470.000;
     power_rating 5.7 MVA;
     impedance 0.00033+0.0022j;
}

//Start actual feeder

object meter {
     name network_node;
     bustype SWING;
     nominal_voltage 230000;
     object player {
          property voltage_A;
          loop 100;
          file V_A.player;
     };
     object player {
          property voltage_B;
          loop 100;
          file V_B.player;
     };
     object player {
          property voltage_C;
          loop 100;
          file V_C.player;
     };
     phases ABCN;
}

object transformer {
     name substation_transformer;
     from network_node;
     to R1-12-47-4_node_305;
     phases ABCN;
     configuration trans_config_to_feeder;
}

        
object regulator {     
      name R1-12-47-4_reg_1;     
      from R1-12-47-4_node_305;     
      to R1-12-47-4_meter_13;     
      phases ABCN;     
      configuration feeder_reg_cfg;     
}       
object capacitor {     
      name R1-12-47-4_cap_1;     
      phases ABCN;     
      pt_phase B;     
      parent R1-12-47-4_node_233;     
      phases_connected ABC;     
      control VOLT;     
      voltage_set_high 7300;     
      voltage_set_low 7100;     
      capacitor_A 0.6 MVAr;    
      capacitor_B 0.6 MVAr;    
      capacitor_C 0.6 MVAr;    
      control_level INDIVIDUAL;     
      time_delay 30.0;     
      dwell_time 30.0;     
      cap_nominal_voltage 6930;     
      nominal_voltage 7200;     
}       
object fuse {     
      name R1-12-47-4_fuse_1;     
      phases ABCN;     
      from R1-12-47-4_node_10;     
      to R1-12-47-4_node_169;     
      current_limit 50000;// 15;    
      status CLOSED;     
}       
object fuse {     
      name R1-12-47-4_fuse_2;     
      phases AN;     
      from R1-12-47-4_node_21;     
      to R1-12-47-4_node_287;     
      current_limit 50000;// 15;    
      status CLOSED;     
}       
object fuse {     
      name R1-12-47-4_fuse_3;     
      phases AN;     
      from R1-12-47-4_node_24;     
      to R1-12-47-4_node_288;     
      current_limit 50000;// 15;    
      status CLOSED;     
}       
object fuse {     
      name R1-12-47-4_fuse_4;     
      phases AN;     
      from R1-12-47-4_node_27;     
      to R1-12-47-4_node_289;     
      current_limit 50000;// 25;    
      status CLOSED;     
}       
object fuse {     
      name R1-12-47-4_fuse_5;     
      phases CN;     
      from R1-12-47-4_node_38;     
      to R1-12-47-4_node_290;     
      current_limit 50000;// 15;    
      status CLOSED;     
}       
object fuse {     
      name R1-12-47-4_fuse_6;     
      phases CN;     
      from R1-12-47-4_node_41;     
      to R1-12-47-4_node_291;     
      current_limit 50000;// 15;    
      status CLOSED;     
}       
object fuse {     
      name R1-12-47-4_fuse_7;     
      phases CN;     
      from R1-12-47-4_node_43;     
      to R1-12-47-4_node_292;     
      current_limit 50000;// 25;    
      status CLOSED;     
}       
object fuse {     
      name R1-12-47-4_fuse_8;     
      phases CN;     
      from R1-12-47-4_node_50;     
      to R1-12-47-4_node_293;     
      current_limit 50000;// 15;    
      status CLOSED;     
}       
object fuse {     
      name R1-12-47-4_fuse_9;     
      phases ABCN;     
      from R1-12-47-4_node_54;     
      to R1-12-47-4_node_294;     
      current_limit 50000;// 20;    
      status CLOSED;     
}       
object fuse {     
      name R1-12-47-4_fuse_10;     
      phases ABCN;     
      from R1-12-47-4_node_55;     
      to R1-12-47-4_node_295;     
      current_limit 50000;// 30;    
      status CLOSED;     
}       
object fuse {     
      name R1-12-47-4_fuse_11;     
      phases ABCN;     
      from R1-12-47-4_node_57;     
      to R1-12-47-4_node_296;     
      current_limit 50000;// 15;    
      status CLOSED;     
}       
object fuse {     
      name R1-12-47-4_fuse_12;     
      phases ABCN;     
      from R1-12-47-4_node_59;     
      to R1-12-47-4_node_297;     
      current_limit 50000;// 25;    
      status CLOSED;     
}       
object fuse {     
      name R1-12-47-4_fuse_13;     
      phases ABCN;     
      from R1-12-47-4_node_61;     
      to R1-12-47-4_node_298;     
      current_limit 50000;// 25;    
      status CLOSED;     
}       
object fuse {     
      name R1-12-47-4_fuse_14;     
      phases ABCN;     
      from R1-12-47-4_node_63;     
      to R1-12-47-4_node_299;     
      current_limit 50000;// 25;    
      status CLOSED;     
}       
object fuse {     
      name R1-12-47-4_fuse_15;     
      phases ABCN;     
      from R1-12-47-4_node_64;     
      to R1-12-47-4_node_300;     
      current_limit 50000;// 25;    
      status CLOSED;     
}       
object fuse {     
      name R1-12-47-4_fuse_16;     
      phases AN;     
      from R1-12-47-4_node_19;     
      to R1-12-47-4_node_301;     
      current_limit 50000;// 25;    
      status CLOSED;     
}       
object fuse {     
      name R1-12-47-4_fuse_17;     
      phases AN;     
      from R1-12-47-4_node_30;     
      to R1-12-47-4_node_260;     
      current_limit 50000;// 40;    
      status CLOSED;     
}       
object fuse {     
      name R1-12-47-4_fuse_18;     
      phases CN;     
      from R1-12-47-4_node_30;     
      to R1-12-47-4_node_268;     
      current_limit 50000;// 40;    
      status CLOSED;     
}       
object fuse {     
      name R1-12-47-4_fuse_19;     
      phases ABCN;     
      from R1-12-47-4_node_30;     
      to R1-12-47-4_node_274;     
      current_limit 50000;// 40;    
      status CLOSED;     
}       
object fuse {     
      name R1-12-47-4_fuse_20;     
      phases ABCN;     
      from R1-12-47-4_node_56;     
      to R1-12-47-4_node_276;     
      current_limit 50000;// 65;    
      status CLOSED;     
}       
object fuse {     
      name R1-12-47-4_fuse_21;     
      phases ABCN;     
      from R1-12-47-4_node_58;     
      to R1-12-47-4_node_195;     
      current_limit 50000;// 15;    
      status CLOSED;     
}       
object fuse {     
      name R1-12-47-4_fuse_22;     
      phases ABCN;     
      from R1-12-47-4_node_84;     
      to R1-12-47-4_node_196;     
      current_limit 50000;// 65;    
      status CLOSED;     
}       
object fuse {     
      name R1-12-47-4_fuse_23;     
      phases ABCN;     
      from R1-12-47-4_node_87;     
      to R1-12-47-4_node_197;     
      current_limit 50000;// 15;    
      status CLOSED;     
}       
object fuse {     
      name R1-12-47-4_fuse_24;     
      phases ABCN;     
      from R1-12-47-4_node_91;     
      to R1-12-47-4_node_198;     
      current_limit 50000;// 25;    
      status CLOSED;     
}       
object fuse {     
      name R1-12-47-4_fuse_25;     
      phases ABCN;     
      from R1-12-47-4_node_93;     
      to R1-12-47-4_node_199;     
      current_limit 50000;// 25;    
      status CLOSED;     
}       
object fuse {     
      name R1-12-47-4_fuse_26;     
      phases ABCN;     
      from R1-12-47-4_node_170;     
      to R1-12-47-4_node_73;     
      current_limit 50000;// 65;    
      status CLOSED;     
}       
object fuse {     
      name R1-12-47-4_fuse_27;     
      phases ABCN;     
      from R1-12-47-4_node_175;     
      to R1-12-47-4_node_74;     
      current_limit 50000;// 65;    
      status CLOSED;     
}       
object fuse {     
      name R1-12-47-4_fuse_28;     
      phases ABCN;     
      from R1-12-47-4_node_176;     
      to R1-12-47-4_node_77;     
      current_limit 50000;// 90;    
      status CLOSED;     
}       
object fuse {     
      name R1-12-47-4_fuse_29;     
      phases ABCN;     
      from R1-12-47-4_node_181;     
      to R1-12-47-4_node_76;     
      current_limit 50000;// 65;    
      status CLOSED;     
}       
object fuse {     
      name R1-12-47-4_fuse_30;     
      phases ABCN;     
      from R1-12-47-4_node_120;     
      to R1-12-47-4_node_224;     
      current_limit 50000;// 25;    
      status CLOSED;     
}       
object fuse {     
      name R1-12-47-4_fuse_31;     
      phases ABCN;     
      from R1-12-47-4_node_140;     
      to R1-12-47-4_node_225;     
      current_limit 50000;// 15;    
      status CLOSED;     
}       
object fuse {     
      name R1-12-47-4_fuse_32;     
      phases ABCN;     
      from R1-12-47-4_node_144;     
      to R1-12-47-4_node_226;     
      current_limit 50000;// 8;    
      status CLOSED;     
}       
object fuse {     
      name R1-12-47-4_fuse_33;     
      phases ABCN;     
      from R1-12-47-4_node_111;     
      to R1-12-47-4_node_227;     
      current_limit 50000;// 25;    
      status CLOSED;     
}       
object fuse {     
      name R1-12-47-4_fuse_34;     
      phases ABCN;     
      from R1-12-47-4_node_113;     
      to R1-12-47-4_node_228;     
      current_limit 50000;// 15;    
      status CLOSED;     
}       
object fuse {     
      name R1-12-47-4_fuse_35;     
      phases ABCN;     
      from R1-12-47-4_node_115;     
      to R1-12-47-4_node_229;     
      current_limit 50000;// 25;    
      status CLOSED;     
}       
object fuse {     
      name R1-12-47-4_fuse_36;     
      phases ABCN;     
      from R1-12-47-4_node_126;     
      to R1-12-47-4_node_230;     
      current_limit 50000;// 15;    
      status CLOSED;     
}       
object fuse {     
      name R1-12-47-4_fuse_37;     
      phases ABCN;     
      from R1-12-47-4_node_204;     
      to R1-12-47-4_node_107;     
      current_limit 50000;// 65;    
      status CLOSED;     
}       
object fuse {     
      name R1-12-47-4_fuse_38;     
      phases ABCN;     
      from R1-12-47-4_node_209;     
      to R1-12-47-4_node_106;     
      current_limit 50000;// 65;    
      status CLOSED;     
}       
object fuse {     
      name R1-12-47-4_fuse_39;     
      phases ABCN;     
      from R1-12-47-4_node_153;     
      to R1-12-47-4_node_237;     
      current_limit 50000;// 65;    
      status CLOSED;     
}       
object fuse {     
      name R1-12-47-4_fuse_40;     
      phases ABCN;     
      from R1-12-47-4_node_101;     
      to R1-12-47-4_node_235;     
      current_limit 50000;// 65;    
      status CLOSED;     
}       
object fuse {     
      name R1-12-47-4_fuse_41;     
      phases ABCN;     
      from R1-12-47-4_node_157;     
      to R1-12-47-4_node_247;     
      current_limit 50000;// 8;    
      status CLOSED;     
}       
object fuse {     
      name R1-12-47-4_fuse_42;     
      phases ABCN;     
      from R1-12-47-4_node_159;     
      to R1-12-47-4_node_248;     
      current_limit 50000;// 3;    
      status CLOSED;     
}       
object fuse {     
      name R1-12-47-4_fuse_43;     
      phases ABCN;     
      from R1-12-47-4_node_162;     
      to R1-12-47-4_node_249;     
      current_limit 50000;// 15;    
      status CLOSED;     
}       
object fuse {     
      name R1-12-47-4_fuse_44;     
      phases ABCN;     
      from R1-12-47-4_node_164;     
      to R1-12-47-4_node_250;     
      current_limit 50000;// 25;    
      status CLOSED;     
}       

object node {
      name R1-12-47-4_load_1;     
      parent R1-12-47-4_meter_1;     
      phases ABCN;     
      nominal_voltage 480.00;
}


object node {
      name R1-12-47-4_load_2;     
      parent R1-12-47-4_meter_2;     
      phases ABCN;     
      nominal_voltage 480.00;
}


object node {
      name R1-12-47-4_load_3;     
      parent R1-12-47-4_meter_3;     
      phases ABCN;     
      nominal_voltage 480.00;
}


object node {
      name R1-12-47-4_load_4;     
      parent R1-12-47-4_meter_4;     
      phases ABCN;     
      nominal_voltage 480.00;
}


object node {
      name R1-12-47-4_load_5;     
      parent R1-12-47-4_meter_5;     
      phases ABCN;     
      nominal_voltage 480.00;
}


object node {
      name R1-12-47-4_load_6;     
      parent R1-12-47-4_meter_6;     
      phases ABCN;     
      nominal_voltage 480.00;
}


object node {
      name R1-12-47-4_load_7;     
      parent R1-12-47-4_meter_7;     
      phases ABCN;     
      nominal_voltage 480.00;
}


object node {
      name R1-12-47-4_load_8;     
      parent R1-12-47-4_meter_8;     
      phases ABCN;     
      nominal_voltage 480.00;
}


object node {
      name R1-12-47-4_load_9;     
      parent R1-12-47-4_meter_9;     
      phases ABCN;     
      nominal_voltage 480.00;
}


object node {
      name R1-12-47-4_load_10;     
      parent R1-12-47-4_meter_10;     
      phases ABCN;     
      nominal_voltage 480.00;
}


object node {
      name R1-12-47-4_load_11;     
      parent R1-12-47-4_meter_11;     
      phases ABCN;     
      nominal_voltage 480.00;
}


object node {
      name R1-12-47-4_load_12;     
      parent R1-12-47-4_meter_12;     
      phases ABCN;     
      nominal_voltage 480.00;
}

object meter {     
      name R1-12-47-4_meter_1;     
      phases ABCN;     
      nominal_voltage 480;     
}       
object meter {     
      name R1-12-47-4_meter_2;     
      phases ABCN;     
      nominal_voltage 480;     
}       
object meter {     
      name R1-12-47-4_meter_3;     
      phases ABCN;     
      nominal_voltage 480;     
}       
object meter {     
      name R1-12-47-4_meter_4;     
      phases ABCN;     
      nominal_voltage 480;     
}       
object meter {     
      name R1-12-47-4_meter_5;     
      phases ABCN;     
      nominal_voltage 480;     
}       
object meter {     
      name R1-12-47-4_meter_6;     
      phases ABCN;     
      nominal_voltage 480;     
}       
object meter {     
      name R1-12-47-4_meter_7;     
      phases ABCN;     
      nominal_voltage 480;     
}       
object meter {     
      name R1-12-47-4_meter_8;     
      phases ABCN;     
      nominal_voltage 480;     
}       
object meter {     
      name R1-12-47-4_meter_9;     
      phases ABCN;     
      nominal_voltage 480;     
}       
object meter {     
      name R1-12-47-4_meter_10;     
      phases ABCN;     
      nominal_voltage 480;     
}       
object meter {     
      name R1-12-47-4_meter_11;     
      phases ABCN;     
      nominal_voltage 480;     
}       
object meter {     
      name R1-12-47-4_meter_12;     
      phases ABCN;     
      nominal_voltage 480;     
}       
object meter {     
      name R1-12-47-4_meter_13;     
      phases ABCN;     
      nominal_voltage 480;     
}       
object node {     
      name R1-12-47-4_node_1;     
      phases ABCN;     
      voltage_A 7200+0.0j;     
      voltage_B -3600-6235j;     
      voltage_C -3600+6235j;     
      nominal_voltage 7200;     
}       
object node {     
      name R1-12-47-4_node_2;     
      phases ABCN;     
      voltage_A 7200+0.0j;     
      voltage_B -3600-6235j;     
      voltage_C -3600+6235j;     
      nominal_voltage 7200;     
}       
object node {     
      name R1-12-47-4_node_3;     
      phases ABCN;     
      voltage_A 7200+0.0j;     
      voltage_B -3600-6235j;     
      voltage_C -3600+6235j;     
      nominal_voltage 7200;     
}       
object node {     
      name R1-12-47-4_node_4;     
      phases ABCN;     
      voltage_A 7200+0.0j;     
      voltage_B -3600-6235j;     
      voltage_C -3600+6235j;     
      nominal_voltage 7200;     
}       
object node {     
      name R1-12-47-4_node_5;     
      phases ABCN;     
      voltage_A 7200+0.0j;     
      voltage_B -3600-6235j;     
      voltage_C -3600+6235j;     
      nominal_voltage 7200;     
}       
object node {     
      name R1-12-47-4_node_6;     
      phases ABCN;     
      voltage_A 7200+0.0j;     
      voltage_B -3600-6235j;     
      voltage_C -3600+6235j;     
      nominal_voltage 7200;     
}       
object node {     
      name R1-12-47-4_node_7;     
      phases ABCN;     
      voltage_A 7200+0.0j;     
      voltage_B -3600-6235j;     
      voltage_C -3600+6235j;     
      nominal_voltage 7200;     
}       
object node {     
      name R1-12-47-4_node_8;     
      phases ABCN;     
      voltage_A 7200+0.0j;     
      voltage_B -3600-6235j;     
      voltage_C -3600+6235j;     
      nominal_voltage 7200;     
}       
object node {     
      name R1-12-47-4_node_9;     
      phases ABCN;     
      voltage_A 7200+0.0j;     
      voltage_B -3600-6235j;     
      voltage_C -3600+6235j;     
      nominal_voltage 7200;     
}       
object node {     
      name R1-12-47-4_node_10;     
      phases ABCN;     
      voltage_A 7200+0.0j;     
      voltage_B -3600-6235j;     
      voltage_C -3600+6235j;     
      nominal_voltage 7200;     
}       
object node {     
      name R1-12-47-4_node_11;     
      phases ABCN;     
      voltage_A 7200+0.0j;     
      voltage_B -3600-6235j;     
      voltage_C -3600+6235j;     
      nominal_voltage 7200;     
}       
object node {     
      name R1-12-47-4_node_12;     
      phases ABCN;     
      voltage_A 7200+0.0j;     
      voltage_B -3600-6235j;     
      voltage_C -3600+6235j;     
      nominal_voltage 7200;     
}       
object node {     
      name R1-12-47-4_node_13;     
      phases AN;     
      voltage_A 7200+0.0j;     
      nominal_voltage 7200;     
}       
object node {     
      name R1-12-47-4_node_14;     
      phases AN;     
      voltage_A 7200+0.0j;     
      nominal_voltage 7200;     
}       
object node {     
      name R1-12-47-4_node_15;     
      phases AN;     
      voltage_A 7200+0.0j;     
      nominal_voltage 7200;     
}       
object node {     
      name R1-12-47-4_node_16;     
      phases AN;     
      voltage_A 7200+0.0j;     
      nominal_voltage 7200;     
}       
object node {     
      name R1-12-47-4_node_17;     
      phases AN;     
      voltage_A 7200+0.0j;     
      nominal_voltage 7200;     
}       
object node {     
      name R1-12-47-4_node_18;     
      phases AN;     
      voltage_A 7200+0.0j;     
      nominal_voltage 7200;     
}       
object node {     
      name R1-12-47-4_node_19;     
      phases AN;     
      voltage_A 7200+0.0j;     
      nominal_voltage 7200;     
}       
object node {     
      name R1-12-47-4_node_20;     
      phases AN;     
      voltage_A 7200+0.0j;     
      nominal_voltage 7200;     
}       
object node {     
      name R1-12-47-4_node_21;     
      phases AN;     
      voltage_A 7200+0.0j;     
      nominal_voltage 7200;     
}       
object node {     
      name R1-12-47-4_node_22;     
      phases AN;     
      voltage_A 7200+0.0j;     
      nominal_voltage 7200;     
}       
object node {     
      name R1-12-47-4_node_23;     
      phases AN;     
      voltage_A 7200+0.0j;     
      nominal_voltage 7200;     
}       
object node {     
      name R1-12-47-4_node_24;     
      phases AN;     
      voltage_A 7200+0.0j;     
      nominal_voltage 7200;     
}       
object node {     
      name R1-12-47-4_node_25;     
      phases AN;     
      voltage_A 7200+0.0j;     
      nominal_voltage 7200;     
}       
object node {     
      name R1-12-47-4_node_26;     
      phases AN;     
      voltage_A 7200+0.0j;     
      nominal_voltage 7200;     
}       
object node {     
      name R1-12-47-4_node_27;     
      phases AN;     
      voltage_A 7200+0.0j;     
      nominal_voltage 7200;     
}       
object node {     
      name R1-12-47-4_node_28;     
      phases AN;     
      voltage_A 7200+0.0j;     
      nominal_voltage 7200;     
}       
object node {     
      name R1-12-47-4_node_29;     
      phases AN;     
      voltage_A 7200+0.0j;     
      nominal_voltage 7200;     
}       
object node {     
      name R1-12-47-4_node_30;     
      phases ABCN;     
      voltage_A 7200+0.0j;     
      voltage_B -3600-6235j;     
      voltage_C -3600+6235j;     
      nominal_voltage 7200;     
}       
object node {     
      name R1-12-47-4_node_31;     
      phases CN;     
      voltage_C -3600+6235j;     
      nominal_voltage 7200;     
}       
object node {     
      name R1-12-47-4_node_32;     
      phases CN;     
      voltage_C -3600+6235j;     
      nominal_voltage 7200;     
}       
object node {     
      name R1-12-47-4_node_33;     
      phases CN;     
      voltage_C -3600+6235j;     
      nominal_voltage 7200;     
}       
object node {     
      name R1-12-47-4_node_34;     
      phases CN;     
      voltage_C -3600+6235j;     
      nominal_voltage 7200;     
}       
object node {     
      name R1-12-47-4_node_35;     
      phases CN;     
      voltage_C -3600+6235j;     
      nominal_voltage 7200;     
}       
object node {     
      name R1-12-47-4_node_36;     
      phases CN;     
      voltage_C -3600+6235j;     
      nominal_voltage 7200;     
}       
object node {     
      name R1-12-47-4_node_37;     
      phases CN;     
      voltage_C -3600+6235j;     
      nominal_voltage 7200;     
}       
object node {     
      name R1-12-47-4_node_38;     
      phases CN;     
      voltage_C -3600+6235j;     
      nominal_voltage 7200;     
}       
object node {     
      name R1-12-47-4_node_39;     
      phases CN;     
      voltage_C -3600+6235j;     
      nominal_voltage 7200;     
}       
object node {     
      name R1-12-47-4_node_40;     
      phases CN;     
      voltage_C -3600+6235j;     
      nominal_voltage 7200;     
}       
object node {     
      name R1-12-47-4_node_41;     
      phases CN;     
      voltage_C -3600+6235j;     
      nominal_voltage 7200;     
}       
object node {     
      name R1-12-47-4_node_42;     
      phases CN;     
      voltage_C -3600+6235j;     
      nominal_voltage 7200;     
}       
object node {     
      name R1-12-47-4_node_43;     
      phases CN;     
      voltage_C -3600+6235j;     
      nominal_voltage 7200;     
}       
object node {     
      name R1-12-47-4_node_44;     
      phases CN;     
      voltage_C -3600+6235j;     
      nominal_voltage 7200;     
}       
object node {     
      name R1-12-47-4_node_45;     
      phases CN;     
      voltage_C -3600+6235j;     
      nominal_voltage 7200;     
}       
object node {     
      name R1-12-47-4_node_46;     
      phases CN;     
      voltage_C -3600+6235j;     
      nominal_voltage 7200;     
}       
object node {     
      name R1-12-47-4_node_47;     
      phases CN;     
      voltage_C -3600+6235j;     
      nominal_voltage 7200;     
}       
object node {     
      name R1-12-47-4_node_48;     
      phases CN;     
      voltage_C -3600+6235j;     
      nominal_voltage 7200;     
}       
object node {     
      name R1-12-47-4_node_49;     
      phases CN;     
      voltage_C -3600+6235j;     
      nominal_voltage 7200;     
}       
object node {     
      name R1-12-47-4_node_50;     
      phases CN;     
      voltage_C -3600+6235j;     
      nominal_voltage 7200;     
}       
object node {     
      name R1-12-47-4_node_51;     
      phases CN;     
      voltage_C -3600+6235j;     
      nominal_voltage 7200;     
}       
object node {     
      name R1-12-47-4_node_52;     
      phases CN;     
      voltage_C -3600+6235j;     
      nominal_voltage 7200;     
}       
object node {     
      name R1-12-47-4_node_53;     
      phases CN;     
      voltage_C -3600+6235j;     
      nominal_voltage 7200;     
}       
object node {     
      name R1-12-47-4_node_54;     
      phases ABCN;     
      voltage_A 7200+0.0j;     
      voltage_B -3600-6235j;     
      voltage_C -3600+6235j;     
      nominal_voltage 7200;     
}       
object node {     
      name R1-12-47-4_node_55;     
      phases ABCN;     
      voltage_A 7200+0.0j;     
      voltage_B -3600-6235j;     
      voltage_C -3600+6235j;     
      nominal_voltage 7200;     
}       
object node {     
      name R1-12-47-4_node_56;     
      phases ABCN;     
      voltage_A 7200+0.0j;     
      voltage_B -3600-6235j;     
      voltage_C -3600+6235j;     
      nominal_voltage 7200;     
}       
object node {     
      name R1-12-47-4_node_57;     
      phases ABCN;     
      voltage_A 7200+0.0j;     
      voltage_B -3600-6235j;     
      voltage_C -3600+6235j;     
      nominal_voltage 7200;     
}       
object node {     
      name R1-12-47-4_node_58;     
      phases ABCN;     
      voltage_A 7200+0.0j;     
      voltage_B -3600-6235j;     
      voltage_C -3600+6235j;     
      nominal_voltage 7200;     
}       
object node {     
      name R1-12-47-4_node_59;     
      phases ABCN;     
      voltage_A 7200+0.0j;     
      voltage_B -3600-6235j;     
      voltage_C -3600+6235j;     
      nominal_voltage 7200;     
}       
object node {     
      name R1-12-47-4_node_60;     
      phases ABCN;     
      voltage_A 7200+0.0j;     
      voltage_B -3600-6235j;     
      voltage_C -3600+6235j;     
      nominal_voltage 7200;     
}       
object node {     
      name R1-12-47-4_node_61;     
      phases ABCN;     
      voltage_A 7200+0.0j;     
      voltage_B -3600-6235j;     
      voltage_C -3600+6235j;     
      nominal_voltage 7200;     
}       
object node {     
      name R1-12-47-4_node_62;     
      phases ABCN;     
      voltage_A 7200+0.0j;     
      voltage_B -3600-6235j;     
      voltage_C -3600+6235j;     
      nominal_voltage 7200;     
}       
object node {     
      name R1-12-47-4_node_63;     
      phases ABCN;     
      voltage_A 7200+0.0j;     
      voltage_B -3600-6235j;     
      voltage_C -3600+6235j;     
      nominal_voltage 7200;     
}       
object node {     
      name R1-12-47-4_node_64;     
      phases ABCN;     
      voltage_A 7200+0.0j;     
      voltage_B -3600-6235j;     
      voltage_C -3600+6235j;     
      nominal_voltage 7200;     
}       
object node {     
      name R1-12-47-4_node_65;     
      phases ABCN;     
      voltage_A 7200+0.0j;     
      voltage_B -3600-6235j;     
      voltage_C -3600+6235j;     
      nominal_voltage 7200;     
}       
object node {     
      name R1-12-47-4_node_66;     
      phases ABCN;     
      voltage_A 7200+0.0j;     
      voltage_B -3600-6235j;     
      voltage_C -3600+6235j;     
      nominal_voltage 7200;     
}       
object node {     
      name R1-12-47-4_node_67;     
      phases ABCN;     
      voltage_A 7200+0.0j;     
      voltage_B -3600-6235j;     
      voltage_C -3600+6235j;     
      nominal_voltage 7200;     
}       
object node {     
      name R1-12-47-4_node_68;     
      phases ABCN;     
      voltage_A 7200+0.0j;     
      voltage_B -3600-6235j;     
      voltage_C -3600+6235j;     
      nominal_voltage 7200;     
}       
object node {     
      name R1-12-47-4_node_69;     
      phases ABCN;     
      voltage_A 7200+0.0j;     
      voltage_B -3600-6235j;     
      voltage_C -3600+6235j;     
      nominal_voltage 7200;     
}       
object node {     
      name R1-12-47-4_node_70;     
      phases ABCN;     
      voltage_A 7200+0.0j;     
      voltage_B -3600-6235j;     
      voltage_C -3600+6235j;     
      nominal_voltage 7200;     
}       
object node {     
      name R1-12-47-4_node_71;     
      phases ABCN;     
      voltage_A 7200+0.0j;     
      voltage_B -3600-6235j;     
      voltage_C -3600+6235j;     
      nominal_voltage 7200;     
}       
object node {     
      name R1-12-47-4_node_72;     
      phases ABCN;     
      voltage_A 7200+0.0j;     
      voltage_B -3600-6235j;     
      voltage_C -3600+6235j;     
      nominal_voltage 7200;     
}       
object node {     
      name R1-12-47-4_node_73;     
      phases ABCN;     
      voltage_A 7200+0.0j;     
      voltage_B -3600-6235j;     
      voltage_C -3600+6235j;     
      nominal_voltage 7200;     
}       
object node {     
      name R1-12-47-4_node_74;     
      phases ABCN;     
      voltage_A 7200+0.0j;     
      voltage_B -3600-6235j;     
      voltage_C -3600+6235j;     
      nominal_voltage 7200;     
}       
object node {     
      name R1-12-47-4_node_75;     
      phases ABCN;     
      voltage_A 7200+0.0j;     
      voltage_B -3600-6235j;     
      voltage_C -3600+6235j;     
      nominal_voltage 7200;     
}       
object node {     
      name R1-12-47-4_node_76;     
      phases ABCN;     
      voltage_A 7200+0.0j;     
      voltage_B -3600-6235j;     
      voltage_C -3600+6235j;     
      nominal_voltage 7200;     
}       
object node {     
      name R1-12-47-4_node_77;     
      phases ABCN;     
      voltage_A 7200+0.0j;     
      voltage_B -3600-6235j;     
      voltage_C -3600+6235j;     
      nominal_voltage 7200;     
}       
object node {     
      name R1-12-47-4_node_78;     
      phases ABCN;     
      voltage_A 7200+0.0j;     
      voltage_B -3600-6235j;     
      voltage_C -3600+6235j;     
      nominal_voltage 7200;     
}       
object node {     
      name R1-12-47-4_node_79;     
      phases ABCN;     
      voltage_A 7200+0.0j;     
      voltage_B -3600-6235j;     
      voltage_C -3600+6235j;     
      nominal_voltage 7200;     
}       
object node {     
      name R1-12-47-4_node_80;     
      phases ABCN;     
      voltage_A 7200+0.0j;     
      voltage_B -3600-6235j;     
      voltage_C -3600+6235j;     
      nominal_voltage 7200;     
}       
object node {     
      name R1-12-47-4_node_81;     
      phases ABCN;     
      voltage_A 7200+0.0j;     
      voltage_B -3600-6235j;     
      voltage_C -3600+6235j;     
      nominal_voltage 7200;     
}       
object node {     
      name R1-12-47-4_node_82;     
      phases ABCN;     
      voltage_A 7200+0.0j;     
      voltage_B -3600-6235j;     
      voltage_C -3600+6235j;     
      nominal_voltage 7200;     
}       
object node {     
      name R1-12-47-4_node_83;     
      phases ABCN;     
      voltage_A 7200+0.0j;     
      voltage_B -3600-6235j;     
      voltage_C -3600+6235j;     
      nominal_voltage 7200;     
}       
object node {     
      name R1-12-47-4_node_84;     
      phases ABCN;     
      voltage_A 7200+0.0j;     
      voltage_B -3600-6235j;     
      voltage_C -3600+6235j;     
      nominal_voltage 7200;     
}       
object node {     
      name R1-12-47-4_node_85;     
      phases ABCN;     
      voltage_A 7200+0.0j;     
      voltage_B -3600-6235j;     
      voltage_C -3600+6235j;     
      nominal_voltage 7200;     
}       
object node {     
      name R1-12-47-4_node_86;     
      phases ABCN;     
      voltage_A 7200+0.0j;     
      voltage_B -3600-6235j;     
      voltage_C -3600+6235j;     
      nominal_voltage 7200;     
}       
object node {     
      name R1-12-47-4_node_87;     
      phases ABCN;     
      voltage_A 7200+0.0j;     
      voltage_B -3600-6235j;     
      voltage_C -3600+6235j;     
      nominal_voltage 7200;     
}       
object node {     
      name R1-12-47-4_node_88;     
      phases ABCN;     
      voltage_A 7200+0.0j;     
      voltage_B -3600-6235j;     
      voltage_C -3600+6235j;     
      nominal_voltage 7200;     
}       
object node {     
      name R1-12-47-4_node_89;     
      phases ABCN;     
      voltage_A 7200+0.0j;     
      voltage_B -3600-6235j;     
      voltage_C -3600+6235j;     
      nominal_voltage 7200;     
}       
object node {     
      name R1-12-47-4_node_90;     
      phases ABCN;     
      voltage_A 7200+0.0j;     
      voltage_B -3600-6235j;     
      voltage_C -3600+6235j;     
      nominal_voltage 7200;     
}       
object node {     
      name R1-12-47-4_node_91;     
      phases ABCN;     
      voltage_A 7200+0.0j;     
      voltage_B -3600-6235j;     
      voltage_C -3600+6235j;     
      nominal_voltage 7200;     
}       
object node {     
      name R1-12-47-4_node_92;     
      phases ABCN;     
      voltage_A 7200+0.0j;     
      voltage_B -3600-6235j;     
      voltage_C -3600+6235j;     
      nominal_voltage 7200;     
}       
object node {     
      name R1-12-47-4_node_93;     
      phases ABCN;     
      voltage_A 7200+0.0j;     
      voltage_B -3600-6235j;     
      voltage_C -3600+6235j;     
      nominal_voltage 7200;     
}       
object node {     
      name R1-12-47-4_node_94;     
      phases ABCN;     
      voltage_A 7200+0.0j;     
      voltage_B -3600-6235j;     
      voltage_C -3600+6235j;     
      nominal_voltage 7200;     
}       
object node {     
      name R1-12-47-4_node_95;     
      phases ABCN;     
      voltage_A 7200+0.0j;     
      voltage_B -3600-6235j;     
      voltage_C -3600+6235j;     
      nominal_voltage 7200;     
}       
object node {     
      name R1-12-47-4_node_96;     
      phases ABCN;     
      voltage_A 7200+0.0j;     
      voltage_B -3600-6235j;     
      voltage_C -3600+6235j;     
      nominal_voltage 7200;     
}       
object node {     
      name R1-12-47-4_node_97;     
      phases ABCN;     
      voltage_A 7200+0.0j;     
      voltage_B -3600-6235j;     
      voltage_C -3600+6235j;     
      nominal_voltage 7200;     
}       
object node {     
      name R1-12-47-4_node_98;     
      phases ABCN;     
      voltage_A 7200+0.0j;     
      voltage_B -3600-6235j;     
      voltage_C -3600+6235j;     
      nominal_voltage 7200;     
}       
object node {     
      name R1-12-47-4_node_99;     
      phases ABCN;     
      voltage_A 7200+0.0j;     
      voltage_B -3600-6235j;     
      voltage_C -3600+6235j;     
      nominal_voltage 7200;     
}       
object node {     
      name R1-12-47-4_node_100;     
      phases ABCN;     
      voltage_A 7200+0.0j;     
      voltage_B -3600-6235j;     
      voltage_C -3600+6235j;     
      nominal_voltage 7200;     
}       
object node {     
      name R1-12-47-4_node_101;     
      phases ABCN;     
      voltage_A 7200+0.0j;     
      voltage_B -3600-6235j;     
      voltage_C -3600+6235j;     
      nominal_voltage 7200;     
}       
object node {     
      name R1-12-47-4_node_102;     
      phases ABCN;     
      voltage_A 7200+0.0j;     
      voltage_B -3600-6235j;     
      voltage_C -3600+6235j;     
      nominal_voltage 7200;     
}       
object node {     
      name R1-12-47-4_node_103;     
      phases ABCN;     
      voltage_A 7200+0.0j;     
      voltage_B -3600-6235j;     
      voltage_C -3600+6235j;     
      nominal_voltage 7200;     
}       
object node {     
      name R1-12-47-4_node_104;     
      phases ABCN;     
      voltage_A 7200+0.0j;     
      voltage_B -3600-6235j;     
      voltage_C -3600+6235j;     
      nominal_voltage 7200;     
}       
object node {     
      name R1-12-47-4_node_105;     
      phases ABCN;     
      voltage_A 7200+0.0j;     
      voltage_B -3600-6235j;     
      voltage_C -3600+6235j;     
      nominal_voltage 7200;     
}       
object node {     
      name R1-12-47-4_node_106;     
      phases ABCN;     
      voltage_A 7200+0.0j;     
      voltage_B -3600-6235j;     
      voltage_C -3600+6235j;     
      nominal_voltage 7200;     
}       
object node {     
      name R1-12-47-4_node_107;     
      phases ABCN;     
      voltage_A 7200+0.0j;     
      voltage_B -3600-6235j;     
      voltage_C -3600+6235j;     
      nominal_voltage 7200;     
}       
object node {     
      name R1-12-47-4_node_108;     
      phases ABCN;     
      voltage_A 7200+0.0j;     
      voltage_B -3600-6235j;     
      voltage_C -3600+6235j;     
      nominal_voltage 7200;     
}       
object node {     
      name R1-12-47-4_node_109;     
      phases ABCN;     
      voltage_A 7200+0.0j;     
      voltage_B -3600-6235j;     
      voltage_C -3600+6235j;     
      nominal_voltage 7200;     
}       
object node {     
      name R1-12-47-4_node_110;     
      phases ABCN;     
      voltage_A 7200+0.0j;     
      voltage_B -3600-6235j;     
      voltage_C -3600+6235j;     
      nominal_voltage 7200;     
}       
object node {     
      name R1-12-47-4_node_111;     
      phases ABCN;     
      voltage_A 7200+0.0j;     
      voltage_B -3600-6235j;     
      voltage_C -3600+6235j;     
      nominal_voltage 7200;     
}       
object node {     
      name R1-12-47-4_node_112;     
      phases ABCN;     
      voltage_A 7200+0.0j;     
      voltage_B -3600-6235j;     
      voltage_C -3600+6235j;     
      nominal_voltage 7200;     
}       
object node {     
      name R1-12-47-4_node_113;     
      phases ABCN;     
      voltage_A 7200+0.0j;     
      voltage_B -3600-6235j;     
      voltage_C -3600+6235j;     
      nominal_voltage 7200;     
}       
object node {     
      name R1-12-47-4_node_114;     
      phases ABCN;     
      voltage_A 7200+0.0j;     
      voltage_B -3600-6235j;     
      voltage_C -3600+6235j;     
      nominal_voltage 7200;     
}       
object node {     
      name R1-12-47-4_node_115;     
      phases ABCN;     
      voltage_A 7200+0.0j;     
      voltage_B -3600-6235j;     
      voltage_C -3600+6235j;     
      nominal_voltage 7200;     
}       
object node {     
      name R1-12-47-4_node_116;     
      phases ABCN;     
      voltage_A 7200+0.0j;     
      voltage_B -3600-6235j;     
      voltage_C -3600+6235j;     
      nominal_voltage 7200;     
}       
object node {     
      name R1-12-47-4_node_117;     
      phases ABCN;     
      voltage_A 7200+0.0j;     
      voltage_B -3600-6235j;     
      voltage_C -3600+6235j;     
      nominal_voltage 7200;     
}       
object node {     
      name R1-12-47-4_node_118;     
      phases ABCN;     
      voltage_A 7200+0.0j;     
      voltage_B -3600-6235j;     
      voltage_C -3600+6235j;     
      nominal_voltage 7200;     
}       
object node {     
      name R1-12-47-4_node_119;     
      phases ABCN;     
      voltage_A 7200+0.0j;     
      voltage_B -3600-6235j;     
      voltage_C -3600+6235j;     
      nominal_voltage 7200;     
}       
object node {     
      name R1-12-47-4_node_120;     
      phases ABCN;     
      voltage_A 7200+0.0j;     
      voltage_B -3600-6235j;     
      voltage_C -3600+6235j;     
      nominal_voltage 7200;     
}       
object node {     
      name R1-12-47-4_node_121;     
      phases ABCN;     
      voltage_A 7200+0.0j;     
      voltage_B -3600-6235j;     
      voltage_C -3600+6235j;     
      nominal_voltage 7200;     
}       
object node {     
      name R1-12-47-4_node_122;     
      phases ABCN;     
      voltage_A 7200+0.0j;     
      voltage_B -3600-6235j;     
      voltage_C -3600+6235j;     
      nominal_voltage 7200;     
}       
object node {     
      name R1-12-47-4_node_123;     
      phases ABCN;     
      voltage_A 7200+0.0j;     
      voltage_B -3600-6235j;     
      voltage_C -3600+6235j;     
      nominal_voltage 7200;     
}       
object node {     
      name R1-12-47-4_node_124;     
      phases ABCN;     
      voltage_A 7200+0.0j;     
      voltage_B -3600-6235j;     
      voltage_C -3600+6235j;     
      nominal_voltage 7200;     
}       
object node {     
      name R1-12-47-4_node_125;     
      phases ABCN;     
      voltage_A 7200+0.0j;     
      voltage_B -3600-6235j;     
      voltage_C -3600+6235j;     
      nominal_voltage 7200;     
}       
object node {     
      name R1-12-47-4_node_126;     
      phases ABCN;     
      voltage_A 7200+0.0j;     
      voltage_B -3600-6235j;     
      voltage_C -3600+6235j;     
      nominal_voltage 7200;     
}       
object node {     
      name R1-12-47-4_node_127;     
      phases ABCN;     
      voltage_A 7200+0.0j;     
      voltage_B -3600-6235j;     
      voltage_C -3600+6235j;     
      nominal_voltage 7200;     
}       
object node {     
      name R1-12-47-4_node_128;     
      phases ABCN;     
      voltage_A 7200+0.0j;     
      voltage_B -3600-6235j;     
      voltage_C -3600+6235j;     
      nominal_voltage 7200;     
}       
object node {     
      name R1-12-47-4_node_129;     
      phases ABCN;     
      voltage_A 7200+0.0j;     
      voltage_B -3600-6235j;     
      voltage_C -3600+6235j;     
      nominal_voltage 7200;     
}       
object node {     
      name R1-12-47-4_node_130;     
      phases ABCN;     
      voltage_A 7200+0.0j;     
      voltage_B -3600-6235j;     
      voltage_C -3600+6235j;     
      nominal_voltage 7200;     
}       
object node {     
      name R1-12-47-4_node_131;     
      phases ABCN;     
      voltage_A 7200+0.0j;     
      voltage_B -3600-6235j;     
      voltage_C -3600+6235j;     
      nominal_voltage 7200;     
}       
object node {     
      name R1-12-47-4_node_132;     
      phases ABCN;     
      voltage_A 7200+0.0j;     
      voltage_B -3600-6235j;     
      voltage_C -3600+6235j;     
      nominal_voltage 7200;     
}       
object node {     
      name R1-12-47-4_node_133;     
      phases ABCN;     
      voltage_A 7200+0.0j;     
      voltage_B -3600-6235j;     
      voltage_C -3600+6235j;     
      nominal_voltage 7200;     
}       
object node {     
      name R1-12-47-4_node_134;     
      phases ABCN;     
      voltage_A 7200+0.0j;     
      voltage_B -3600-6235j;     
      voltage_C -3600+6235j;     
      nominal_voltage 7200;     
}       
object node {     
      name R1-12-47-4_node_135;     
      phases ABCN;     
      voltage_A 7200+0.0j;     
      voltage_B -3600-6235j;     
      voltage_C -3600+6235j;     
      nominal_voltage 7200;     
}       
object node {     
      name R1-12-47-4_node_136;     
      phases ABCN;     
      voltage_A 7200+0.0j;     
      voltage_B -3600-6235j;     
      voltage_C -3600+6235j;     
      nominal_voltage 7200;     
}       
object node {     
      name R1-12-47-4_node_137;     
      phases ABCN;     
      voltage_A 7200+0.0j;     
      voltage_B -3600-6235j;     
      voltage_C -3600+6235j;     
      nominal_voltage 7200;     
}       
object node {     
      name R1-12-47-4_node_138;     
      phases ABCN;     
      voltage_A 7200+0.0j;     
      voltage_B -3600-6235j;     
      voltage_C -3600+6235j;     
      nominal_voltage 7200;     
}       
object node {     
      name R1-12-47-4_node_139;     
      phases ABCN;     
      voltage_A 7200+0.0j;     
      voltage_B -3600-6235j;     
      voltage_C -3600+6235j;     
...